REMARK  Name = *****
REMARK  5 active torsions:
REMARK  status: ('A' for Active; 'I' for Inactive)
REMARK    1  A    between atoms: C_1  and  C_2
REMARK    2  A    between atoms: C_2  and  C_3
REMARK    3  A    between atoms: C_2  and  N_10
REMARK    4  A    between atoms: C_3  and  C_4
REMARK    5  A    between atoms: N_10  and  C_11
REMARK                            x       y       z     vdW  Elec       q    Type
REMARK                         _______ _______ _______ _____ _____    ______ ____
ROOT
ATOM      1  C   UNL     1       3.016  -1.322  -0.299  0.00  0.00    +0.000 C 
ENDROOT
BRANCH   1   2
ATOM      2  C   UNL     1       2.671  -2.432   0.669  0.00  0.00    +0.000 A 
ATOM      3  C   UNL     1       1.430  -3.080   0.591  0.00  0.00    +0.000 A 
ATOM      4  C   UNL     1       1.104  -4.101   1.486  0.00  0.00    +0.000 A 
ATOM      5  C   UNL     1       2.017  -4.486   2.466  0.00  0.00    +0.000 A 
ATOM      6  C   UNL     1       3.255  -3.853   2.550  0.00  0.00    +0.000 A 
ATOM      7  C   UNL     1       3.582  -2.832   1.656  0.00  0.00    +0.000 A 
ENDBRANCH   1   2
BRANCH   1   9
ATOM      8  C   UNL     1       3.240   0.561   1.408  0.00  0.00    +0.000 C 
ATOM      9  C   UNL     1       2.569   0.108   0.107  0.00  0.00    +0.000 C 
BRANCH   9  10
ATOM     10  N   UNL     1       1.099   0.191   0.168  0.00  0.00    +0.000 N 
ATOM     11  C   UNL     1       0.599   1.554   0.270  0.00  0.00    +0.000 C 
ATOM     12  H   UNL     1       0.780  -0.331   0.984  0.00  0.00    +0.000 HD
ATOM     13  H   UNL     1       0.741  -0.195  -0.705  0.00  0.00    +0.000 HD
ENDBRANCH   9  10
ENDBRANCH   1   9
TORSDOF 3
