REMARK  Name = *****
REMARK  2 active torsions:
REMARK  status: ('A' for Active; 'I' for Inactive)
REMARK    1  A    between atoms: C_1  and  N_2
REMARK    2  A    between atoms: C_7  and  C_15
REMARK                            x       y       z     vdW  Elec       q    Type
REMARK                         _______ _______ _______ _____ _____    ______ ____
ROOT
ATOM      1  C   UNL     1       0.959  -0.094   0.016  0.00  0.00    +0.000 C 
ATOM      2  N   UNL     1       2.408  -0.070   0.167  0.00  0.00    +0.000 N 
ATOM      3  C   UNL     1       3.075  -1.289  -0.009  0.00  0.00    +0.000 C 
ATOM      4  O   UNL     1       2.472  -2.348  -0.208  0.00  0.00    +0.000 OA
ATOM      5  C   UNL     1       4.597  -1.251  -0.046  0.00  0.00    +0.000 C 
ATOM      6  N   UNL     1       5.104  -0.965   1.292  0.00  0.00    +0.000 NA
ATOM      7  C   UNL     1       4.929   0.224   1.764  0.00  0.00    +0.000 C 
ATOM      8  C   UNL     1       4.297   1.339   1.000  0.00  0.00    +0.000 A 
ATOM      9  C   UNL     1       3.073   1.187   0.317  0.00  0.00    +0.000 A 
ATOM     10  C   UNL     1       2.491   2.341  -0.244  0.00  0.00    +0.000 A 
ATOM     11  C   UNL     1       3.126   3.585  -0.179  0.00  0.00    +0.000 A 
ATOM     12  C   UNL     1       4.357   3.700   0.452  0.00  0.00    +0.000 A 
ATOM     13  C   UNL     1       4.946   2.588   1.040  0.00  0.00    +0.000 A 
ATOM     14 CL   UNL     1       5.147   5.226   0.519  0.00  0.00    +0.000 Cl
ENDROOT
BRANCH   7  15
ATOM     15  C   UNL     1       5.402   0.482   3.162  0.00  0.00    +0.000 A 
ATOM     16  C   UNL     1       6.545  -0.180   3.626  0.00  0.00    +0.000 A 
ATOM     17  C   UNL     1       7.006   0.042   4.925  0.00  0.00    +0.000 A 
ATOM     18  C   UNL     1       6.321   0.917   5.768  0.00  0.00    +0.000 A 
ATOM     19  C   UNL     1       5.170   1.564   5.318  0.00  0.00    +0.000 A 
ATOM     20  C   UNL     1       4.705   1.344   4.019  0.00  0.00    +0.000 A 
ENDBRANCH   7  15
TORSDOF 1
