REMARK  Name = *****
REMARK  1 active torsions:
REMARK  status: ('A' for Active; 'I' for Inactive)
REMARK    1  A    between atoms: C_4  and  C_7
REMARK                            x       y       z     vdW  Elec       q    Type
REMARK                         _______ _______ _______ _____ _____    ______ ____
ROOT
ATOM      1  C   UNL     1       0.707   1.062   0.005  0.00  0.00    +0.000 A 
ATOM      2  C   UNL     1      -0.679   1.129   0.002  0.00  0.00    +0.000 A 
ATOM      3  N   UNL     1      -1.464   0.026  -0.001  0.00  0.00    +0.000 NA
ATOM      4  C   UNL     1      -0.784  -1.159  -0.001  0.00  0.00    +0.000 A 
ATOM      5  C   UNL     1       0.601  -1.227   0.002  0.00  0.00    +0.000 A 
ATOM      6  N   UNL     1       1.379  -0.113   0.005  0.00  0.00    +0.000 NA
ENDROOT
BRANCH   4   7
ATOM      7  C   UNL     1      -1.590  -2.410  -0.005  0.00  0.00    +0.000 C 
ATOM      8  O   UNL     1      -1.078  -3.522  -0.005  0.00  0.00    +0.000 OA
ATOM      9  N   UNL     1      -2.948  -2.237  -0.009  0.00  0.00    +0.000 N 
ATOM     10  H   UNL     1      -3.328  -1.328  -0.009  0.00  0.00    +0.000 HD
ATOM     11  H   UNL     1      -3.544  -3.020  -0.012  0.00  0.00    +0.000 HD
ENDBRANCH   4   7
TORSDOF 1
