REMARK  Name = *****
REMARK  8 active torsions:
REMARK  status: ('A' for Active; 'I' for Inactive)
REMARK    1  A    between atoms: C_1  and  C_2
REMARK    2  A    between atoms: C_6  and  C_27
REMARK    3  A    between atoms: C_7  and  O_19
REMARK    4  A    between atoms: C_14  and  C_18
REMARK    5  A    between atoms: O_19  and  C_20
REMARK    6  A    between atoms: C_20  and  C_22
REMARK    7  A    between atoms: C_22  and  C_23
REMARK    8  A    between atoms: C_23  and  C_24
REMARK                            x       y       z     vdW  Elec       q    Type
REMARK                         _______ _______ _______ _____ _____    ______ ____
ROOT
ATOM      1  C   UNL     1       1.151  -3.862  -0.354  0.00  0.00    +0.000 C 
ATOM      2  C   UNL     1       1.204  -2.333  -0.459  0.00  0.00    +0.000 C 
ATOM      3  C   UNL     1       2.604  -1.856  -0.063  0.00  0.00    +0.000 C 
ATOM      4  C   UNL     1       2.737  -0.343  -0.169  0.00  0.00    +0.000 C 
ATOM      5  C   UNL     1       1.701   0.381   0.706  0.00  0.00    +0.000 C 
ATOM      6  C   UNL     1       1.791   1.928   0.594  0.00  0.00    +0.000 C 
ATOM      7  C   UNL     1       1.256   2.414  -0.767  0.00  0.00    +0.000 C 
ATOM      8  O   UNL     1      -0.091   1.989  -0.940  0.00  0.00    +0.000 OA
ATOM      9  C   UNL     1      -0.252   0.570  -0.924  0.00  0.00    +0.000 C 
ATOM     10  C   UNL     1       0.255  -0.084   0.399  0.00  0.00    +0.000 C 
ATOM     11  C   UNL     1       0.122  -1.638   0.409  0.00  0.00    +0.000 C 
ATOM     12  C   UNL     1      -1.294  -2.138   0.032  0.00  0.00    +0.000 C 
ATOM     13  C   UNL     1      -2.469  -1.268   0.497  0.00  0.00    +0.000 C 
ATOM     14  C   UNL     1      -2.355   0.204   0.055  0.00  0.00    +0.000 C 
ATOM     15  O   UNL     1      -1.629   0.279  -1.175  0.00  0.00    +0.000 OA
ATOM     16  O   UNL     1      -1.747   1.012   1.072  0.00  0.00    +0.000 OA
ATOM     17  O   UNL     1      -0.536   0.341   1.542  0.00  0.00    +0.000 OA
ATOM     18  C   UNL     1      -3.740   0.796  -0.192  0.00  0.00    +0.000 C 
ATOM     19  C   UNL     1       3.195   2.460   0.895  0.00  0.00    +0.000 C 
ENDROOT
BRANCH   7  20
ATOM     20  O   UNL     1       1.254   3.850  -0.797  0.00  0.00    +0.000 OA
BRANCH  20  21
ATOM     21  C   UNL     1       2.182   4.440  -1.585  0.00  0.00    +0.000 C 
ATOM     22  O   UNL     1       3.066   3.869  -2.214  0.00  0.00    +0.000 OA
BRANCH  21  23
ATOM     23  C   UNL     1       1.974   5.933  -1.609  0.00  0.00    +0.000 C 
BRANCH  23  24
ATOM     24  C   UNL     1       3.143   6.631  -2.291  0.00  0.00    +0.000 C 
BRANCH  24  25
ATOM     25  C   UNL     1       3.029   6.562  -3.793  0.00  0.00    +0.000 C 
ATOM     26  O   UNL     1       2.642   7.494  -4.481  0.00  0.00    +0.000 OA
ATOM     27  O   UNL     1       3.386   5.372  -4.320  0.00  0.00    +0.000 OA
ENDBRANCH  24  25
ENDBRANCH  23  24
ENDBRANCH  21  23
ENDBRANCH  20  21
ENDBRANCH   7  20
TORSDOF 5
