REMARK  Name = *****
REMARK  5 active torsions:
REMARK  status: ('A' for Active; 'I' for Inactive)
REMARK    1  A    between atoms: C_5  and  C_7
REMARK    2  A    between atoms: C_7  and  C_8
REMARK    3  A    between atoms: C_7  and  O_26
REMARK    4  A    between atoms: C_10  and  C_22
REMARK    5  A    between atoms: C_17  and  C_18
REMARK                            x       y       z     vdW  Elec       q    Type
REMARK                         _______ _______ _______ _____ _____    ______ ____
ROOT
ATOM      1  C   UNL     1       2.152  -1.250  -2.266  0.00  0.00    +0.000 A 
ATOM      2  C   UNL     1       2.635  -0.169  -3.023  0.00  0.00    +0.000 A 
ATOM      3  C   UNL     1       3.933  -0.187  -3.511  0.00  0.00    +0.000 A 
ATOM      4  N   UNL     1       4.768  -1.226  -3.250  0.00  0.00    +0.000 NA
ATOM      5  C   UNL     1       4.342  -2.274  -2.528  0.00  0.00    +0.000 A 
ATOM      6  C   UNL     1       3.026  -2.341  -1.999  0.00  0.00    +0.000 A 
ATOM      7  C   UNL     1       2.668  -3.481  -1.238  0.00  0.00    +0.000 A 
ATOM      8  C   UNL     1       3.565  -4.520  -1.009  0.00  0.00    +0.000 A 
ATOM      9  C   UNL     1       4.843  -4.442  -1.534  0.00  0.00    +0.000 A 
ATOM     10  C   UNL     1       5.231  -3.322  -2.291  0.00  0.00    +0.000 A 
ENDROOT
BRANCH  10  11
ATOM     11  C   UNL     1       6.625  -3.248  -2.856  0.00  0.00    +0.000 C 
ATOM     12  F   UNL     1       6.664  -3.188  -4.216  0.00  0.00    +0.000 F 
ATOM     13  F   UNL     1       7.346  -2.187  -2.394  0.00  0.00    +0.000 F 
ATOM     14  F   UNL     1       7.378  -4.346  -2.534  0.00  0.00    +0.000 F 
ENDBRANCH  10  11
BRANCH   3  15
ATOM     15  C   UNL     1       4.441   1.003  -4.316  0.00  0.00    +0.000 C 
ATOM     16  F   UNL     1       3.499   1.500  -5.172  0.00  0.00    +0.000 F 
ATOM     17  F   UNL     1       4.795   2.053  -3.519  0.00  0.00    +0.000 F 
ATOM     18  F   UNL     1       5.531   0.733  -5.088  0.00  0.00    +0.000 F 
ENDBRANCH   3  15
BRANCH   1  19
ATOM     19  C   UNL     1       0.710  -1.173  -1.772  0.00  0.00    +0.000 C 
BRANCH  19  24
ATOM     20  C   UNL     1      -2.357  -2.243  -1.775  0.00  0.00    +0.000 C 
ATOM     21  C   UNL     1      -2.217  -3.414  -2.740  0.00  0.00    +0.000 C 
ATOM     22  C   UNL     1      -0.782  -3.549  -3.240  0.00  0.00    +0.000 C 
ATOM     23  N   UNL     1      -0.283  -2.312  -3.843  0.00  0.00    +0.000 N 
ATOM     24  C   UNL     1      -0.355  -1.153  -2.924  0.00  0.00    +0.000 C 
ATOM     25  C   UNL     1      -1.796  -0.970  -2.401  0.00  0.00    +0.000 C 
ATOM     26  H   UNL     1      -0.842  -2.105  -4.671  0.00  0.00    +0.000 HD
ATOM     27  H   UNL     1       0.699  -2.458  -4.074  0.00  0.00    +0.000 HD
ENDBRANCH  19  24
BRANCH  19  28
ATOM     28  O   UNL     1       0.585   0.022  -0.986  0.00  0.00    +0.000 OA
ATOM     29  H   UNL     1       0.774   0.795  -1.540  0.00  0.00    +0.000 HD
ENDBRANCH  19  28
ENDBRANCH   1  19
TORSDOF 5
