REMARK  Name = *****
REMARK  4 active torsions:
REMARK  status: ('A' for Active; 'I' for Inactive)
REMARK    1  A    between atoms: C_1  and  C_2
REMARK    2  A    between atoms: C_2  and  O_4
REMARK    3  A    between atoms: O_4  and  C_5
REMARK    4  A    between atoms: C_10  and  C_11
REMARK                            x       y       z     vdW  Elec       q    Type
REMARK                         _______ _______ _______ _____ _____    ______ ____
ROOT
ATOM      1  C   UNL     1       4.532  -0.804   0.362  0.00  0.00    +0.000 A 
ATOM      2  C   UNL     1       5.297   0.323   0.678  0.00  0.00    +0.000 A 
ATOM      3  C   UNL     1       6.665   0.180   0.911  0.00  0.00    +0.000 A 
ATOM      4  C   UNL     1       7.264  -1.077   0.819  0.00  0.00    +0.000 A 
ATOM      5  C   UNL     1       6.499  -2.197   0.481  0.00  0.00    +0.000 A 
ATOM      6  C   UNL     1       5.127  -2.065   0.229  0.00  0.00    +0.000 A 
ENDROOT
BRANCH   6   7
ATOM      7  C   UNL     1       4.376  -3.286  -0.151  0.00  0.00    +0.000 C 
ATOM      8  O   UNL     1       4.692  -4.402   0.225  0.00  0.00    +0.000 OA
ATOM      9  O   UNL     1       3.359  -3.064  -1.012  0.00  0.00    +0.000 OA
ENDBRANCH   6   7
BRANCH   1  10
ATOM     10  O   UNL     1       3.164  -0.633   0.122  0.00  0.00    +0.000 OA
BRANCH  10  12
ATOM     11  C   UNL     1       0.965  -0.432   0.937  0.00  0.00    +0.000 C 
ATOM     12  C   UNL     1       2.414  -0.570   1.296  0.00  0.00    +0.000 C 
ATOM     13  O   UNL     1       2.843  -0.621   2.439  0.00  0.00    +0.000 OA
ENDBRANCH  10  12
ENDBRANCH   1  10
TORSDOF 3
