REMARK  Name = *****
REMARK  12 active torsions:
REMARK  status: ('A' for Active; 'I' for Inactive)
REMARK    1  A    between atoms: C_1  and  C_2
REMARK    2  A    between atoms: C_2  and  N_3
REMARK    3  A    between atoms: N_3  and  C_4
REMARK    4  A    between atoms: N_3  and  C_21
REMARK    5  A    between atoms: C_4  and  C_5
REMARK    6  A    between atoms: C_5  and  C_6
REMARK    7  A    between atoms: C_6  and  C_7
REMARK    8  A    between atoms: C_7  and  C_8
REMARK    9  A    between atoms: C_7  and  N_9
REMARK   10  A    between atoms: N_9  and  C_10
REMARK   11  A    between atoms: C_21  and  C_22
REMARK   12  A    between atoms: C_22  and  O_23
REMARK                            x       y       z     vdW  Elec       q    Type
REMARK                         _______ _______ _______ _____ _____    ______ ____
ROOT
ATOM      1  C   UNL     1      -1.214   3.062  -2.043  0.00  0.00    +0.000 C 
ATOM      2  C   UNL     1      -1.705   2.935  -0.599  0.00  0.00    +0.000 C 
ENDROOT
BRANCH   1   3
ATOM      3  N   UNL     1      -1.768   4.288  -2.632  0.00  0.00    +0.000 N 
ATOM      4  H   UNL     1      -1.207   5.097  -2.639  0.00  0.00    +0.000 HD
BRANCH   3   5
ATOM      5  C   UNL     1      -3.058   4.367  -3.187  0.00  0.00    +0.000 A 
ATOM      6  C   UNL     1      -3.520   5.604  -3.728  0.00  0.00    +0.000 A 
ATOM      7  C   UNL     1      -2.749   6.792  -3.748  0.00  0.00    +0.000 A 
ATOM      8  C   UNL     1      -3.247   7.973  -4.298  0.00  0.00    +0.000 A 
ATOM      9  C   UNL     1      -4.526   7.985  -4.831  0.00  0.00    +0.000 A 
ATOM     10  C   UNL     1      -5.307   6.833  -4.808  0.00  0.00    +0.000 A 
ATOM     11  C   UNL     1      -4.832   5.650  -4.262  0.00  0.00    +0.000 A 
ATOM     12  N   UNL     1      -5.658   4.596  -4.257  0.00  0.00    +0.000 NA
ATOM     13  C   UNL     1      -5.217   3.457  -3.694  0.00  0.00    +0.000 A 
ATOM     14  C   UNL     1      -3.958   3.301  -3.147  0.00  0.00    +0.000 A 
ATOM     15 CL   UNL     1      -5.155   9.434  -5.512  0.00  0.00    +0.000 Cl
ENDBRANCH   3   5
ENDBRANCH   1   3
BRANCH   1  16
ATOM     16  C   UNL     1       0.328   3.156  -2.105  0.00  0.00    +0.000 C 
BRANCH  16  17
ATOM     17  C   UNL     1       1.101   1.970  -1.511  0.00  0.00    +0.000 C 
BRANCH  17  18
ATOM     18  C   UNL     1       0.833   0.646  -2.244  0.00  0.00    +0.000 C 
BRANCH  18  19
ATOM     19  N   UNL     1       1.607  -0.523  -1.785  0.00  0.00    +0.000 N 
ATOM     20  H   UNL     1       1.274  -1.308  -2.344  0.00  0.00    +0.000 HD
BRANCH  19  22
ATOM     21  C   UNL     1      -0.105  -1.276  -0.112  0.00  0.00    +0.000 C 
ATOM     22  C   UNL     1       1.349  -0.902  -0.384  0.00  0.00    +0.000 C 
ENDBRANCH  19  22
BRANCH  19  23
ATOM     23  C   UNL     1       3.057  -0.343  -2.039  0.00  0.00    +0.000 C 
BRANCH  23  24
ATOM     24  C   UNL     1       3.798  -1.688  -2.113  0.00  0.00    +0.000 C 
BRANCH  24  25
ATOM     25  O   UNL     1       3.104  -2.573  -2.990  0.00  0.00    +0.000 OA
ATOM     26  H   UNL     1       2.205  -2.721  -2.655  0.00  0.00    +0.000 HD
ENDBRANCH  24  25
ENDBRANCH  23  24
ENDBRANCH  19  23
ENDBRANCH  18  19
ENDBRANCH  17  18
ENDBRANCH  16  17
ENDBRANCH   1  16
TORSDOF 10
