REMARK  Name = *****
REMARK  11 active torsions:
REMARK  status: ('A' for Active; 'I' for Inactive)
REMARK    1  A    between atoms: C_1  and  C_2
REMARK    2  A    between atoms: C_2  and  N_3
REMARK    3  A    between atoms: N_3  and  C_4
REMARK    4  A    between atoms: N_3  and  C_6
REMARK    5  A    between atoms: C_4  and  C_5
REMARK    6  A    between atoms: C_6  and  C_7
REMARK    7  A    between atoms: C_7  and  C_8
REMARK    8  A    between atoms: C_8  and  C_9
REMARK    9  A    between atoms: C_9  and  C_10
REMARK   10  A    between atoms: C_9  and  N_11
REMARK   11  A    between atoms: N_11  and  C_12
REMARK                            x       y       z     vdW  Elec       q    Type
REMARK                         _______ _______ _______ _____ _____    ______ ____
ROOT
ATOM      1  N   UNL     1       8.312   4.045  -0.696  0.00  0.00    +0.000 N 
ATOM      2  H   UNL     1       8.895   4.307   0.053  0.00  0.00    +0.000 HD
ENDROOT
BRANCH   1   3
ATOM      3  C   UNL     1       8.906   3.696  -1.923  0.00  0.00    +0.000 A 
ATOM      4  C   UNL     1       8.160   3.543  -3.092  0.00  0.00    +0.000 A 
ATOM      5  C   UNL     1       8.804   3.224  -4.272  0.00  0.00    +0.000 A 
ATOM      6  N   UNL     1      10.135   3.073  -4.386  0.00  0.00    +0.000 NA
ATOM      7  C   UNL     1      10.879   3.272  -3.291  0.00  0.00    +0.000 A 
ATOM      8  C   UNL     1      12.254   3.150  -3.425  0.00  0.00    +0.000 A 
ATOM      9  C   UNL     1      13.108   3.361  -2.347  0.00  0.00    +0.000 A 
ATOM     10 CL   UNL     1      14.809   3.203  -2.555  0.00  0.00    +0.000 Cl
ATOM     11  C   UNL     1      12.596   3.709  -1.106  0.00  0.00    +0.000 A 
ATOM     12  C   UNL     1      11.216   3.832  -0.949  0.00  0.00    +0.000 A 
ATOM     13  C   UNL     1      10.326   3.604  -2.029  0.00  0.00    +0.000 A 
ENDBRANCH   1   3
BRANCH   1  14
ATOM     14  C   UNL     1       6.857   4.035  -0.486  0.00  0.00    +0.000 C 
ATOM     15  C   UNL     1       6.571   4.882   0.759  0.00  0.00    +0.000 C 
BRANCH  14  16
ATOM     16  C   UNL     1       6.363   2.587  -0.306  0.00  0.00    +0.000 C 
BRANCH  16  17
ATOM     17  C   UNL     1       4.846   2.420  -0.138  0.00  0.00    +0.000 C 
BRANCH  17  18
ATOM     18  C   UNL     1       3.986   3.052  -1.245  0.00  0.00    +0.000 C 
BRANCH  18  19
ATOM     19  N   UNL     1       4.419   2.723  -2.613  0.00  0.00    +0.000 N 
ATOM     20  H   UNL     1       5.430   2.849  -2.664  0.00  0.00    +0.000 HD
BRANCH  19  22
ATOM     21  C   UNL     1       4.776   0.886  -4.284  0.00  0.00    +0.000 C 
ATOM     22  C   UNL     1       4.195   1.304  -2.937  0.00  0.00    +0.000 C 
ENDBRANCH  19  22
BRANCH  19  23
ATOM     23  C   UNL     1       3.849   3.660  -3.597  0.00  0.00    +0.000 C 
ATOM     24  C   UNL     1       2.338   3.593  -3.804  0.00  0.00    +0.000 C 
ENDBRANCH  19  23
ENDBRANCH  18  19
ENDBRANCH  17  18
ENDBRANCH  16  17
ENDBRANCH  14  16
ENDBRANCH   1  14
TORSDOF 8
