REMARK  Name = *****
REMARK  3 active torsions:
REMARK  status: ('A' for Active; 'I' for Inactive)
REMARK    1  A    between atoms: C_2  and  C_3
REMARK    2  A    between atoms: C_3  and  N_4
REMARK    3  A    between atoms: N_4  and  C_5
REMARK                            x       y       z     vdW  Elec       q    Type
REMARK                         _______ _______ _______ _____ _____    ______ ____
ROOT
ATOM      1  C   UNL     1       5.771  -0.836  -1.041  0.00  0.00    +0.000 C 
ATOM      2  C   UNL     1       6.411   0.447  -1.619  0.00  0.00    +0.000 C 
ATOM      3  C   UNL     1       7.757   0.025  -2.222  0.00  0.00    +0.000 C 
ATOM      4  C   UNL     1       7.445  -1.368  -2.667  0.00  0.00    +0.000 A 
ATOM      5  C   UNL     1       8.148  -2.151  -3.567  0.00  0.00    +0.000 A 
ATOM      6  C   UNL     1       7.698  -3.451  -3.807  0.00  0.00    +0.000 A 
ATOM      7  C   UNL     1       6.571  -3.953  -3.138  0.00  0.00    +0.000 A 
ATOM      8  C   UNL     1       5.876  -3.160  -2.222  0.00  0.00    +0.000 A 
ATOM      9  C   UNL     1       6.316  -1.863  -2.001  0.00  0.00    +0.000 A 
ENDROOT
BRANCH   1  10
ATOM     10  N   UNL     1       4.313  -0.814  -1.006  0.00  0.00    +0.000 N 
ATOM     11  H   UNL     1       3.966  -0.600  -1.941  0.00  0.00    +0.000 HD
ATOM     12  H   UNL     1       3.996  -1.731  -0.689  0.00  0.00    +0.000 HD
BRANCH  10  13
ATOM     13  C   UNL     1       3.793   0.180  -0.076  0.00  0.00    +0.000 C 
BRANCH  13  15
ATOM     14  C   UNL     1       1.125   0.089  -0.076  0.00  0.00    +0.000 C 
ATOM     15  C   UNL     1       2.325   0.128  -0.075  0.00  0.00    +0.000 C 
ENDBRANCH  13  15
ENDBRANCH  10  13
ENDBRANCH   1  10
TORSDOF 3
